Circuit: * C:\Users\juddf\Documents\HVPS\LTSpice\Draft2.asc

WARNING: Less than two connections to node n003.  This node is used by t1.
WARNING: Less than two connections to node n001.  This node is used by v2.
Direct Newton iteration for .op point succeeded.

Date: Fri Feb 14 16:12:02 2025
Total elapsed time: 0.269 seconds.

tnom = 27
temp = 27
method = modified trap
totiter = 12065
traniter = 12062
tranpoints = 6032
accept = 6029
rejected = 3
matrix size = 9
fillins = 2
solver = Alternate
Avg thread counts: 1.5/2.0/2.0/1.5
Matrix Compiler1: off  [0.1]/0.2/0.2
Matrix Compiler2: 663 bytes object code size  0.1/0.1/[0.1]

