Circuit: * C:\Users\juddf\Documents\HVPS\LTSpice\Draft1.asc

Direct Newton iteration for .op point succeeded.

Date: Wed Feb 19 20:32:15 2025
Total elapsed time: 1.434 seconds.

tnom = 27
temp = 27
method = modified trap
totiter = 176314
traniter = 176298
tranpoints = 76683
accept = 67545
rejected = 9138
matrix size = 22
fillins = 18
solver = Alternate
Avg thread counts: 1.0/1.1/1.1/1.0
Matrix Compiler1:     105 opcodes  0.5/[0.5]/0.5
Matrix Compiler2: 2.19 KB object code size  0.3/0.4/[0.3]

