Circuit: * C:\Users\juddf\Documents\HVPS\LTSpice\Draft2.asc


Date: Sat Feb  1 16:15:51 2025
Total elapsed time: 0.107 seconds.

tnom = 27
temp = 27
method = trap
totiter = 203
traniter = 0
tranpoints = 0
accept = 0
rejected = 0
matrix size = 5
fillins = 0
solver = Alternate
Avg thread counts: 16.0/0.0/16.0/16.0
Matrix Compiler1:       7 opcodes  0.1/[0.0]/0.1
Matrix Compiler2: 339 bytes object code size  0.1/0.1/[0.1]

