Circuit: * C:\Users\juddf\Documents\HVPS\LTSpice\Draft1.asc

.OP point found by inspection.

Date: Wed May  7 10:28:29 2025
Total elapsed time: 0.064 seconds.

tnom = 27
temp = 27
method = trap
totiter = 2096
traniter = 2096
tranpoints = 1049
accept = 1049
rejected = 0
matrix size = 4
fillins = 0
solver = Alternate
Avg thread counts: 3.8/6.6/6.6/3.8
Matrix Compiler1: off  [0.1]/0.1/0.1
Matrix Compiler2: 264 bytes object code size  0.1/0.1/[0.1]

