Circuit: * C:\Users\juddf\Documents\HVPS\LTSpice\Draft2.asc

Direct Newton iteration for .op point succeeded.

Date: Fri Dec 20 19:39:31 2024
Total elapsed time: 0.055 seconds.

tnom = 27
temp = 27
method = modified trap
totiter = 2294
traniter = 2291
tranpoints = 1146
accept = 1142
rejected = 4
matrix size = 5
fillins = 0
solver = Alternate
Avg thread counts: 3.6/6.1/6.1/3.6
Matrix Compiler1: off  [0.0]/0.0/0.1
Matrix Compiler2: 299 bytes object code size  0.1/0.1/[0.0]

