Circuit: * C:\Users\juddf\Documents\HVPS\LTSpice\Draft1.asc

Direct Newton iteration for .op point succeeded.

Date: Sat Dec 14 16:28:19 2024
Total elapsed time: 0.048 seconds.

tnom = 27
temp = 27
method = modified trap
totiter = 2085
traniter = 2082
tranpoints = 1042
accept = 1042
rejected = 0
matrix size = 6
fillins = 0
solver = Normal
Avg thread counts: 3.8/6.7/6.7/3.8
Matrix Compiler1:      10 opcodes  0.1/[0.0]/0.1
Matrix Compiler2: 374 bytes object code size  0.1/0.1/[0.1]

