Circuit: * C:\Users\juddf\Documents\HVPS\LTSpice\HVPS2.asc

Direct Newton iteration failed to find .op point.  (Use ".option noopiter" to skip.)
Starting Gmin stepping
Increasing initial diagonal Gmin to 100
Gmin = 100
Gmin = 10.7374
Gmin = 1.15292
Gmin = 0.123794
Gmin = 0.0132923
Gmin = 0.00142725
Gmin = 0.00015325
Gmin = 1.6455e-05
Gmin = 1.76685e-06
Gmin = 1.89714e-07
Gmin = 2.03704e-08
Gmin = 2.18725e-09
Gmin = 2.34854e-10
Gmin = 2.52173e-11
Gmin = 2.70769e-12
Gmin = 2.90735e-13
Gmin = 0
Gmin stepping succeeded in finding the operating point.


Date: Sat Dec 21 15:43:17 2024
Total elapsed time: 10.542 seconds.

tnom = 27
temp = 27
method = modified trap
totiter = 524984
traniter = 524398
tranpoints = 139059
accept = 99947
rejected = 39112
matrix size = 65
fillins = 24
solver = Alternate
Avg thread counts: 2.0/2.0/1.0/1.0
Matrix Compiler1:     261 opcodes  1.2/[0.9]/1.3
Matrix Compiler2: 6.27 KB object code size  0.9/1.5/[0.8]

