Circuit: * C:\Users\juddf\Documents\HVPS\LTSpice\HVPS.asc

Direct Newton iteration for .op point succeeded.
.step x=0.001
.step x=0.0011
.step x=0.0012
.step x=0.0015
.step x=0.002
.step x=0.0022
.step x=0.0025
.step x=0.003
.step x=0.0035
.step x=0.004
.step x=0.005
.step x=0.006
.step x=0.007
.step x=0.008
.step x=0.009
.step x=0.01

Date: Mon Dec  2 20:46:26 2024
Total elapsed time: 8.788 seconds.

tnom = 27
temp = 27
method = modified trap
totiter = 18956
traniter = 18921
tranpoints = 6850
accept = 5673
rejected = 1177
matrix size = 74
fillins = 41
solver = Normal
Avg thread counts: 1.3/1.8/1.9/1.3
Matrix Compiler1: 6.04 KB object code size  1.2/0.7/[0.5]
Matrix Compiler2: 6.49 KB object code size  0.4/0.6/[0.3]

