Circuit: * C:\Users\juddf\Documents\HVPS\LTSpice\HVPS2.asc

WARNING: Node NC_04 is floating.

WARNING: Less than two connections to node nc_04.  This node is used by c2.
Direct Newton iteration failed to find .op point.  (Use ".option noopiter" to skip.)
Starting Gmin stepping
Increasing initial diagonal Gmin to 100
Gmin = 100
Gmin = 10.7374
Gmin = 1.15292
Gmin = 0.123794
Gmin = 0.0132923
Gmin = 0.00142725
Gmin = 0.00015325
Gmin = 1.6455e-05
Gmin = 1.76685e-06
Gmin = 1.89714e-07
Gmin = 2.03704e-08
Gmin = 2.18725e-09
Gmin = 2.34854e-10
Gmin = 2.52173e-11
Gmin = 2.70769e-12
Gmin = 2.90735e-13
Gmin = 0
Gmin stepping succeeded in finding the operating point.

Heightened Def Con from 5.1013e-05 to 5.1013e-05

Date: Sat Feb  8 16:46:06 2025
Total elapsed time: 5.656 seconds.

tnom = 27
temp = 27
method = modified trap
totiter = 324430
traniter = 323844
tranpoints = 85529
accept = 61022
rejected = 24508
matrix size = 66
fillins = 18
solver = Alternate
Avg thread counts: 3.0/3.0/1.1/1.0
Matrix Compiler1: 5.42 KB object code size  1.1/0.9/[0.9]
Matrix Compiler2: 6.19 KB object code size  0.9/0.9/[0.7]

