Circuit: * C:\Users\juddf\Documents\HVPS\LTSpice\Pass.asc

Direct Newton iteration failed to find .op point.  (Use ".option noopiter" to skip.)
Starting Gmin stepping
Gmin = 10
vernier = 0.5
vernier = 0.666667
Gmin = 3.26162
vernier = 0.888888
Gmin = 0.528136
vernier = 1
Gmin = 0.0567082
Gmin = 0.006089
vernier = 0.5
vernier = 0.25
Gmin = 0.00159619
vernier = 0.125
vernier = 0.0625
vernier = 0.03125
vernier = 0.015625
Gmin = 0.00152401
vernier = 0.0078125
vernier = 0.0104167
Gmin = 0.00149749
vernier = 0.0138889
vernier = 0.0185185
Gmin = 0.00144856
vernier = 0.0246913
Gmin = 0.0013726
vernier = 0.0329218
vernier = 0.0438957
Gmin = 0.00125687
vernier = 0.0585276
vernier = 0.0780367
Gmin = 0.00109353
vernier = 0.0390184
vernier = 0.0195092
Gmin = 0.000997554
vernier = 0.00975459
vernier = 0.0048773
vernier = 0.00243865
vernier = 0.00121932
Gmin = 0.00100028
vernier = 0.000609662
vernier = 0.000457246
Gmin = 0
Gmin stepping failed

Starting source stepping with srcstepmethod=0
Source Step = 3.0303%
vernier = 0.25
Source Step = 1.70455%
Source Step = 3.59848%
Source Step = 5.49242%
Source Step = 7.38636%
Source Step = 9.2803%
Source Step = 9.30102%
Starting source stepping with srcstepmethod=1
Source Step = 3.0303%
vernier = 0.25
Source Step = 0.0828598%
Source Step = 0.201231%
Source Step = 0.319602%
Source Step = 0.437973%
Source Step = 0.556345%
vernier = 0.00585938
Source Step = 0.710227%
Source Step = 0.887784%
Source Step = 1.06534%
Source Step = 1.2429%
Source Step = 1.42045%
vernier = 0.00878906
Source Step = 1.6424%
Source Step = 1.90874%
Source Step = 2.17507%
Source Step = 2.44141%
Source Step = 2.70774%
vernier = 0.0131836
Source Step = 3.02734%
Source Step = 3.42685%
Source Step = 3.82635%
Source Step = 4.22585%
Source Step = 4.62536%
vernier = 0.0197754
Source Step = 5.08478%
Source Step = 5.68404%
Source Step = 6.28329%
Source Step = 6.88255%
Source Step = 7.4818%
vernier = 0.0296631
Source Step = 8.14098%
Source Step = 9.03986%
Source Step = 9.93874%
Source Step = 10.8376%
Source Step = 11.7365%
vernier = 0.0444946
Source Step = 12.6803%
Source Step = 14.0287%
Source Step = 15.377%
Source Step = 16.7253%
Source Step = 18.0736%
Source Step = 19.4219%
vernier = 0.0667419
Source Step = 21.4444%
Source Step = 23.4669%
Source Step = 25.4894%
Source Step = 27.5119%
Source Step = 29.5344%
vernier = 0.100113
Source Step = 32.467%
Source Step = 35.5007%
Source Step = 38.5344%
Source Step = 41.5681%
Source Step = 44.6019%
vernier = 0.150169
Source Step = 48.8491%
Source Step = 53.3997%
Source Step = 57.9502%
Source Step = 62.5008%
Source Step = 67.0514%
vernier = 0.225254
Source Step = 73.1947%
Source Step = 80.0206%
Source Step = 86.8465%
Source Step = 90.942%
Source Step = 91.4646%
Source stepping failed

Pseudo Transient succeeded in finding the operating point at 912.998 ms.
.step x=1e-10
.step x=1e-09
.step x=1e-08

Date: Sat Apr 19 17:48:17 2025
Total elapsed time: 5.637 seconds.

tnom = 27
temp = 27
method = trap
totiter = 17041
traniter = 4154
tranpoints = 1687
accept = 1512
rejected = 192
matrix size = 156
fillins = 331
solver = Alternate
Avg thread counts: 3.1/4.8/4.5/2.4
Matrix Compiler1: 38.70 KB object code size  7.1/6.2/[5.4]
Matrix Compiler2: 21.20 KB object code size  2.3/2.4/[2.1]

